[TITLE]
coucou
;;Project Title/Notes

[OPTIONS]
;;Option             Value
FLOW_UNITS           LPS
INFILTRATION         HORTON
FLOW_ROUTING         KINWAVE
LINK_OFFSETS         DEPTH
MIN_SLOPE            0
ALLOW_PONDING        NO
SKIP_STEADY_STATE    NO

START_DATE           11/30/2021
START_TIME           00:00:00
REPORT_START_DATE    11/30/2021
REPORT_START_TIME    00:00:00
END_DATE             11/30/2021
END_TIME             06:00:00
SWEEP_START          1/1
SWEEP_END            12/31
DRY_DAYS             0
REPORT_STEP          00:15:00
WET_STEP             00:05:00
DRY_STEP             01:00:00
ROUTING_STEP         0:00:30 
RULE_STEP            00:00:00

INERTIAL_DAMPING     PARTIAL
NORMAL_FLOW_LIMITED  BOTH
FORCE_MAIN_EQUATION  H-W
VARIABLE_STEP        0.75
LENGTHENING_STEP     0
MIN_SURFAREA         0
MAX_TRIALS           0
HEAD_TOLERANCE       0
SYS_FLOW_TOL         5
LAT_FLOW_TOL         5
MINIMUM_STEP         0.5
THREADS              1

[EVAPORATION]
;;Data Source    Parameters
;;-------------- ----------------
CONSTANT         0.0
DRY_ONLY         NO

[SUBCATCHMENTS]
;;Name           Rain Gage        Outlet           Area     %Imperv  Width    %Slope   CurbLen  SnowPack        
;;-------------- ---------------- ---------------- -------- -------- -------- -------- -------- ----------------
S10              *                J33              749      25       500      0.5      0                        
S11              *                J38              2450     25       500      0.01     0                        
S12              *                J15              1380     25       500      0.01     0                        
S13              *                J50              200      25       500      0.5      0                        
S14              *                O1               564      25       500      0.5      0                        
S15              *                J30              1190     25       500      1        0                        
S16              *                S22              1150     25       500      0.5      0                        
S17              *                J44              5        25       500      0.5      0                        
S18              *                *                1700     25       500      0.5      0                        
S19              *                S42              90       25       500      0.5      0                        
S2               *                J4               5        25       967      0.5      0                        
S20              *                J42              5        25       500      0.5      0                        
S21              *                J39              505      25       500      0.5      0                        
S22              *                *                5        25       500      0.5      0                        
S23              *                S16              235      25       500      0.5      0                        
S24              *                S20              5        25       500      0.5      0                        
S25              *                J28              5        25       500      0.5      0                        
S26              *                S3               5        25       680      30       0                        
S28              *                J20              330      25       500      0.5      0                        
S3               *                J2               5        25       982      0.5      0                        
S4               *                S2               5        25       1020     30       0                        
S6               *                S14              80       25       500      0.5      0                        
S7               *                S14              434.26   25       500      0.5      0                        
S8               *                J9               498.56   25       500      0.01     0                        
S9               *                J27              1169.8   25       500      0.01     0                        
S34              *                S4               1650     65       122      0.01     0                        
S35              *                S6               100      65       122      0.5      0                        
S36              *                *                10       65       122      0.5      0                        
S37              *                S36              357      65       122      0.01     0                        
S38              *                J20              1430     65       122      0.5      0                        
S39              *                S26              1090     65       122      0.01     0                        
S40              *                J42              800      65       122      0.01     0                        
S41              *                J37              10       65       122      1        0                        
S42              *                *                10       65       122      0.01     0                        
S43              *                J40              200      65       122      0.01     0                        
S44              *                J45              30       65       122      0.01     0                        

[SUBAREAS]
;;Subcatchment   N-Imperv   N-Perv     S-Imperv   S-Perv     PctZero    RouteTo    PctRouted 
;;-------------- ---------- ---------- ---------- ---------- ---------- ---------- ----------
S10              0.01       0.1        0.05       0.05       25         OUTLET    
S11              0.01       0.1        0.05       0.05       25         OUTLET    
S12              0.01       0.1        0.05       0.05       25         OUTLET    
S13              0.01       0.1        0.05       0.05       25         OUTLET    
S14              0.01       0.1        0.05       0.05       25         OUTLET    
S15              0.01       0.1        0.05       0.05       25         OUTLET    
S16              0.01       0.1        0.05       0.05       25         OUTLET    
S17              0.01       0.1        0.05       0.05       25         OUTLET    
S18              0.01       0.1        0.05       0.05       25         OUTLET    
S19              0.01       0.1        0.05       0.05       25         OUTLET    
S2               0.01       0.1        0.05       0.05       25         OUTLET    
S20              0.01       0.1        0.05       0.05       25         OUTLET    
S21              0.01       0.1        0.05       0.05       25         OUTLET    
S22              0.01       0.1        0.05       0.05       25         OUTLET    
S23              0.01       0.1        0.05       0.05       25         OUTLET    
S24              0.01       0.1        0.05       0.05       25         OUTLET    
S25              0.01       0.1        0.05       0.05       25         OUTLET    
S26              0.01       0.1        0.05       0.05       25         OUTLET    
S28              0.01       0.1        0.05       0.05       25         OUTLET    
S3               0.01       0.1        0.05       0.05       25         OUTLET    
S4               0.01       0.1        0.05       0.05       25         OUTLET    
S6               0.01       0.1        0.05       0.05       25         OUTLET    
S7               0.01       0.1        0.05       0.05       25         OUTLET    
S8               0.01       0.1        0.05       0.05       25         OUTLET    
S9               0.01       0.1        0.05       0.05       25         OUTLET    
S34              0.01       0.1        0.05       0.05       25         OUTLET    
S35              0.01       0.1        0.05       0.05       25         OUTLET    
S36              0.01       0.1        0.05       0.05       25         OUTLET    
S37              0.01       0.1        0.05       0.05       25         OUTLET    
S38              0.01       0.1        0.05       0.05       25         OUTLET    
S39              0.01       0.1        0.05       0.05       25         OUTLET    
S40              0.01       0.1        0.05       0.05       25         OUTLET    
S41              0.01       0.1        0.05       0.05       25         OUTLET    
S42              0.01       0.1        0.05       0.05       25         OUTLET    
S43              0.01       0.1        0.05       0.05       25         OUTLET    
S44              0.01       0.1        0.05       0.05       25         OUTLET    

[INFILTRATION]
;;Subcatchment   Param1     Param2     Param3     Param4     Param5    
;;-------------- ---------- ---------- ---------- ---------- ----------
S10              3.0        0.5        4          7          0         
S11              3.0        0.5        4          7          0         
S12              3.0        0.5        4          7          0         
S13              3.0        0.5        4          7          0         
S14              3.0        0.5        4          7          0         
S15              3.0        0.5        4          7          0         
S16              3.0        0.5        4          7          0         
S17              3.0        0.5        4          7          0         
S18              3.0        0.5        4          7          0         
S19              3.0        0.5        4          7          0         
S2               3.0        0.5        4          7          0         
S20              3.0        0.5        4          7          0         
S21              3.0        0.5        4          7          0         
S22              3.0        0.5        4          7          0         
S23              3.0        0.5        4          7          0         
S24              3.0        0.5        4          7          0         
S25              3.0        0.5        4          7          0         
S26              3.0        0.5        4          7          0         
S28              3.0        0.5        4          7          0         
S3               3.0        0.5        4          7          0         
S4               3.0        0.5        4          7          0         
S6               3.0        0.5        4          7          0         
S7               3.0        0.5        4          7          0         
S8               3.0        0.5        4          7          0         
S9               3.0        0.5        4          7          0         
S34              3.0        0.5        4          7          0         
S35              3.0        0.5        4          7          0         
S36              3.0        0.5        4          7          0         
S37              3.0        0.5        4          7          0         
S38              3.0        0.5        4          7          0         
S39              3.0        0.5        4          7          0         
S40              3.0        0.5        4          7          0         
S41              3.0        0.5        4          7          0         
S42              3.0        0.5        4          7          0         
S43              3.0        0.5        4          7          0         
S44              3.0        0.5        4          7          0         

[AQUIFERS]
;;Name           Por    WP     FC     Ksat   Kslope Tslope ETu    ETs    Seep   Ebot   Egw    Umc    ETupat 
;;-------------- ------ ------ ------ ------ ------ ------ ------ ------ ------ ------ ------ ------ ------
Nappesuperficielle 0.5    0.15   0.30   0.0000025 10.0   15.0   0.35   14.0   0.002  86.5   87.5   0.30         

[GROUNDWATER]
;;Subcatchment   Aquifer          Node             Esurf  A1     B1     A2     B2     A3     Dsw    Egwt   Ebot   Wgr    Umc   
;;-------------- ---------------- ---------------- ------ ------ ------ ------ ------ ------ ------ ------ ------ ------ ------

[JUNCTIONS]
;;Name           Elevation  MaxDepth   InitDepth  SurDepth   Aponded   
;;-------------- ---------- ---------- ---------- ---------- ----------
J1               0          0          0          0          0         
J2               0          0          0          0          0         
J4               0          0          0          0          0         
J6               0          0          0          0          0         
J8               0          0          0          0          0         
J9               0          0          0          0          0         
J10              0          0          0          0          0         
J15              0          0          0          0          0         
J20              0          0          0          0          0         
J27              0          0          0          0          0         
J28              0          0          0          0          0         
J29              0          0          0          0          0         
J30              0          0          0          0          0         
J33              0          1.2        0          0          0         
J34              0          0.3        0          0          0         
J35              0          1.2        0          0          0         
J36              0          1.2        0          0          0         
J37              0          1.2        0          0          0         
J38              0          1.2        0          0          0         
J39              0          1.2        0          0          0         
J40              0          1.2        0          0          0         
J41              0          1.2        0          0          0         
J42              0          1.2        0          0          0         
J43              0          1.2        0          0          0         
J44              0          1.2        0          0          0         
J45              0          1.2        0          0          0         
J46              0          1.2        0          0          0         
J47              0          1.2        0          0          0         
J48              0          1.2        0          0          0         
J49              0          1.2        0          0          0         
J50              0          1.2        0          0          0         

[OUTFALLS]
;;Name           Elevation  Type       Stage Data       Gated    Route To        
;;-------------- ---------- ---------- ---------------- -------- ----------------
O1               0          FREE                        NO                       
O2               0          FREE                        NO                       

[CONDUITS]
;;Name           From Node        To Node          Length     Roughness  InOffset   OutOffset  InitFlow   MaxFlow   
;;-------------- ---------------- ---------------- ---------- ---------- ---------- ---------- ---------- ----------
C1               J2               J1               18.8       0.01       0          0          0          0         
C3               J4               J1               8          0.01       0          0          0          0         
C6               J9               J8               20         0.01       0          0          0          0         
C7               J8               J10              400        0.01       0          0          0          0         
C14              J10              J15              30         0.01       0          0          0          0         
C15              J15              J20              400        0.01       0          0          0          0         
C17              J1               J27              60         0.01       0          0          0          0         
C18              J28              J27              7          0.01       0          0          0          0         
C21              J29              J30              58         0.01       0          0          0          0         
C24              J30              J33              18         0.01       0          0          0          0         
C25              J33              J34              40         0.01       0          0          0          0         
C26              J34              J35              36         0.01       0          0          0          0         
C27              J35              J36              20         0.01       0          0          0          0         
C28              J37              J35              13         0.01       0          0          0          0         
C29              J38              J39              10         0.01       0          0          0          0         
C30              J39              J40              20         0.01       0          0          0          0         
C31              J40              J41              20         0.01       0          0          0          0         
C32              J41              J49              50         0.01       0          0          0          0         
C33              J36              O2               5          0.01       0          0          0          0         
C34              J42              J40              35         0.01       0          0          0          0         
C35              J44              J43              10         0.01       0          0          0          0         
C36              J43              J42              50         0.01       0          0          0          0         
C37              J45              J46              20         0.01       0          0          0          0         
C38              J47              J46              20         0.01       0          0          0          0         
C39              J35              J48              20         0.01       0          0          0          0         
C40              J49              J36              30         0.01       0          0          0          0         
C41              J50              J49              2          0.01       0          0          0          0         
C42              J46              J44              90         0.01       0          0          0          0         
C43              J27              J30              20.75      0.01       0          0          0          0         

[XSECTIONS]
;;Link           Shape        Geom1            Geom2      Geom3      Geom4      Barrels    Culvert   
;;-------------- ------------ ---------------- ---------- ---------- ---------- ---------- ----------
C1               CIRCULAR     0.25             0          0          0          1                    
C3               CIRCULAR     0.2              0          0          0          1                    
C6               CIRCULAR     0.15             0          0          0          1                    
C7               CIRCULAR     1                0          0          0          1                    
C14              CIRCULAR     0.2              0          0          0          1                    
C15              CIRCULAR     1                0          0          0          1                    
C17              CIRCULAR     0.3              0          0          0          1                    
C18              CIRCULAR     0.2              0          0          0          1                    
C21              CIRCULAR     0.2              0          0          0          1                    
C24              CIRCULAR     0.3              0          0          0          1                    
C25              CIRCULAR     0.3              0          0          0          1                    
C26              CIRCULAR     0.3              0          0          0          1                    
C27              CIRCULAR     0.3              0          0          0          1                    
C28              CIRCULAR     0.25             0          0          0          1                    
C29              CIRCULAR     0.3              0          0          0          1                    
C30              CIRCULAR     0.3              0          0          0          1                    
C31              CIRCULAR     0.3              0          0          0          1                    
C32              CIRCULAR     0.3              0          0          0          1                    
C33              CIRCULAR     1                0          0          0          1                    
C34              CIRCULAR     0.25             0          0          0          1                    
C35              CIRCULAR     0.25             0          0          0          1                    
C36              CIRCULAR     1                0          0          0          1                    
C37              CIRCULAR     0.15             0          0          0          1                    
C38              CIRCULAR     0.15             0          0          0          1                    
C39              CIRCULAR     0.3              0          0          0          1                    
C40              CIRCULAR     0.3              0          0          0          1                    
C41              CIRCULAR     1                0          0          0          1                    
C42              CIRCULAR     0.25             0          0          0          1                    
C43              CIRCULAR     0.3              0          0          0          1                    

[REPORT]
;;Reporting Options
SUBCATCHMENTS ALL
NODES ALL
LINKS ALL

[TAGS]

[MAP]
DIMENSIONS -4092.182 -13.809 14070.182 10002.809
Units      None

[COORDINATES]
;;Node           X-Coord            Y-Coord           
;;-------------- ------------------ ------------------
J1               8632.231           5146.694          
J2               8293.388           3431.818          
J4               8975.207           5632.231          
J6               7561.983           7834.711          
J8               6004.132           3926.653          
J9               6214.876           2513.430          
J10              5570.248           3972.107          
J15              3628.099           3984.504          
J20              3636.364           4790.289          
J27              5173.554           7805.785          
J28              7925.620           7838.843          
J29              9107.438           9208.678          
J30              4991.736           9316.116          
J33              3572.279           9350.368          
J34              740.193            9186.415          
J35              -1781.329          9182.727          
J36              -3241.069          8238.656          
J37              -1313.260          8119.655          
J38              -215.341           4633.543          
J39              -1008.238          4593.397          
J40              -2192.564          5165.487          
J41              -3507.107          5250.224          
J42              -964.399           2845.540          
J43              -867.766           1106.066          
J44              -254.627           1199.596          
J45              7501.636           238.182           
J46              5979.455           287.818           
J47              6045.636           1528.727          
J48              -3074.544          8497.727          
J49              -3431.952          7338.454          
J50              -3270.927          7354.969          
O1               3719.008           5045.455          
O2               -3699.636          8477.818          

[VERTICES]
;;Link           X-Coord            Y-Coord           
;;-------------- ------------------ ------------------

[Polygons]
;;Subcatchment   X-Coord            Y-Coord           
;;-------------- ------------------ ------------------
S10              2991.736           9169.421          
S10              2950.413           7475.207          
S10              4289.256           7442.149          
S10              4330.579           9169.421          
S10              2983.471           9177.686          
S11              -123.967           6925.620          
S11              -206.612           4214.876          
S11              1446.281           4115.702          
S11              1380.165           1272.727          
S11              2785.124           1190.083          
S11              2801.653           1305.785          
S11              2900.826           3239.669          
S11              3578.512           3239.669          
S11              3694.215           6826.446          
S11              -41.322            6942.149          
S12              3628.099           3938.017          
S12              3603.306           3227.273          
S12              2900.826           3210.744          
S12              2818.182           1252.066          
S12              4785.124           1285.124          
S12              4743.802           681.818           
S12              5512.397           665.289           
S12              5545.455           1078.512          
S12              5933.884           1103.306          
S12              5966.942           2483.471          
S12              5892.562           2500.000          
S12              5892.562           3904.959          
S13              -3223.140          7871.901          
S13              -3247.934          6590.909          
S13              -2403.569          6569.916          
S13              -2347.107          7880.165          
S13              -3214.876          7913.223          
S14              5892.562           2533.058          
S14              5958.678           2524.793          
S14              5991.736           2243.802          
S14              6223.140           2252.066          
S14              6247.934           2475.207          
S14              6479.339           2450.413          
S14              6520.661           2293.388          
S14              6619.835           2326.446          
S14              6586.777           2623.967          
S14              6644.628           2888.430          
S14              6735.537           3144.628          
S14              7008.264           3367.769          
S14              7363.636           3442.149          
S14              7743.802           3367.769          
S14              8049.587           3260.331          
S14              8504.132           3599.174          
S14              8247.934           3855.372          
S14              8090.909           4078.512          
S14              8008.264           4202.479          
S14              7933.884           4409.091          
S14              5919.111           3940.439          
S15              4363.636           9161.157          
S15              4330.579           7450.413          
S15              5074.380           7442.149          
S15              5107.438           7855.372          
S15              7983.471           7830.579          
S15              8024.793           9028.926          
S15              9223.140           9037.190          
S15              9181.818           9268.595          
S15              3272.727           9458.678          
S15              3075.727           9205.818          
S16              -1642.562          8066.116          
S16              -1605.372          7876.033          
S16              -1495.868          7351.240          
S16              -1338.843          7037.190          
S16              -1090.909          6756.198          
S16              -931.818           6693.698          
S16              -512.397           7202.479          
S16              -82.645            7384.298          
S16              512.397            7425.620          
S16              942.149            7392.562          
S16              1314.050           7309.917          
S16              1768.595           7260.331          
S16              2024.793           7235.537          
S16              2363.636           7128.099          
S16              2876.033           7111.570          
S16              2876.033           6888.430          
S16              2785.124           6888.430          
S16              2223.140           7004.132          
S16              1983.471           7095.041          
S16              1661.157           7177.686          
S16              1140.496           7276.860          
S16              876.033            7301.653          
S16              619.835            7301.653          
S16              66.116             7285.124          
S16              -181.818           7219.008          
S16              -404.959           7086.777          
S16              -578.512           6938.017          
S16              -727.273           6772.727          
S16              -675.620           6544.938          
S16              -553.719           6409.091          
S16              -192.149           6259.814          
S16              -148.760           6253.616          
S16              -150.826           6197.831          
S16              -225.207           6158.574          
S16              -347.107           6202.479          
S16              -487.603           6260.331          
S16              -588.843           6313.533          
S16              -758.264           6330.062          
S16              -876.033           6305.269          
S16              -933.884           6194.215          
S16              -1221.074          6161.674          